tests/data/power_flow/non-floating-ground-no-error/linear/delta-wye_n/asym_output.json
{
  "version": "1.0",
  "type": "asym_output",
  "is_batch": false,
  "attributes": {},
  "data": {
    "node": [
      {"id": 1, "energized": 1, "u_pu": [0.99999999999569456, 0.99999999998938693, 0.99999999998948286], "u": [5773.5026918714002, 5773.5026918349831, 5773.502691835537], "u_angle": [7.462801976345315e-14, -2.0943951023966516, 2.0943951023969669], "p": [997.28541385226379, 3316.125340891731, 1589.9393315967004], "q": [1032.4515637473864, 1686.8966218998005, 3367.8483769584163]},
      {"id": 2, "energized": 1, "u_pu": [0.99667236053176012, 0.99667258475800891, 0.98692657487988344], "u": [57.542905564687146, 57.542918510395651, 56.980232367729606], "u_angle": [-0.52627473056234431, -2.6206701157929371, 1.5601968173033984], "p": [-993.35579424796958, -993.35624120822956, -3896.0962568165555], "q": [-993.35579424804246, -993.35624120830028, -3896.0962568165446]}
    ],
    "transformer": [
      {"id": 4, "energized": 1, "loading": 0.088802678151192027, "p_from": [997.28541385226379, 3316.125340891731, 1589.9393315967004], "q_from": [1032.4515637473864, 1686.8966218998005, 3367.8483769584163], "i_from": [0.2486283025834739, 0.64441386134475143, 0.64506534014698136], "s_from": [1435.4561742411033, 3720.5251631296969, 3724.2864777484024], "p_to": [-993.35579424796958, -993.35624120822956, -3896.0962568165555], "q_to": [-993.35579424804246, -993.35624120830028, -3896.0962568165446], "i_to": [24.413387240381798, 24.413392732780743, 96.698660881936277], "s_to": [1404.8172364874276, 1404.8178685846879, 5509.912166701014]}
    ],
    "source": [
      {"id": 3, "energized": 1, "p": [997.28541385226379, 3316.125340891731, 1589.9393315967004], "q": [1032.4515637473864, 1686.8966218998005, 3367.8483769584163], "i": [0.2486283025834739, 0.64441386134475143, 0.64506534014698136], "s": [1435.4561742411033, 3720.5251631296969, 3724.2864777484024], "pf": [0.69475155824907608, 0.89130571505185419, 0.42691112541856135]}
    ],
    "asym_load": [
      {"id": 21, "energized": 1, "p": [993.3557942479506, 993.35624120821035, 3896.0962568165519], "q": [993.3557942479506, 993.35624120821035, 3896.0962568165519], "i": [24.413387240380441, 24.413392732779403, 96.698660881936306], "s": [1404.8172364873496, 1404.8178685846108, 5509.9121667010168], "pf": [0.70710678118654746, 0.70710678118654746, 0.70710678118654757]}
    ]
  }
}